

/*--------------------------------*- C++ -*----------------------------------*\
| =========                 |                                                 |
| \      /  F ield         | OpenFOAM: The Open Source CFD Toolbox           |
|  \    /   O peration     | Version:  1.6.06                                 |
|   \  /    A nd           | Web:      www.OpenFOAM.com                      |
|    \/     M anipulation  |                                                 |
\*---------------------------------------------------------------------------*/
FoamFile
{
    version     2.0;
    format      ascii;
    class       dictionary;
    object      blockMeshDict;
}
// * * * * * * * * * * * * * * * * * * * * * * * * * * * * * * * * * * * * * //

//Main points list
vertices
(
	//Hole TOP : 0-3
	( 0.5 0 10 )
	( 0 0.5 10 )
	( -0.5 0 10 )
	( 0 -0.5 10 )
	//ICell TOP : 4-7
	( 0.2 0 0.9 )
	( 0 0.2 0.9 )
	( -0.2 0 0.9 )
	( 0 -0.2 0.9 )
	//ICell BOTTOM : 8-11
	( 0.2 0 0.1 )
	( 0 0.2 0.1 )
	( -0.2 0 0.1 )
	( 0 -0.2 0.1 )
	//Hole BOTTOM : 12-15
	( 0.5 0 0 )
	( 0 0.5 0 )
	( -0.5 0 0 )
	( 0 -0.5 0 )
	//Layer TOP : 16-19
	( 7 0 0 )
	( 0 7 0 )
	( -7 0 0 )
	( 0 -7 0 )
	//Layer BOTTOM : 20-23
	( 7 0 -2 )
	( 0 7 -2 )
	( -7 0 -2 )
	( 0 -7 -2 )
);

//Arcs to full cirle
edges
(
	//Hole TOP : 0-3
	arc 0 1 (0.353553390593273762 0.353553390593273762 10)
	arc 1 2 (-0.353553390593273762 0.353553390593273762 10)
	arc 2 3 (-0.353553390593273762 -0.353553390593273762 10)
	arc 3 0 (0.353553390593273762 -0.353553390593273762 10)
	//ICell TOP : 4-7
	arc 4 5 (0.141421356237309504 0.141421356237309504 0.9)
	arc 5 6 (-0.141421356237309504 0.141421356237309504 0.9)
	arc 6 7 (-0.141421356237309504 -0.141421356237309504 0.9)
	arc 7 4 (0.141421356237309504 -0.141421356237309504 0.9)
	//ICell BOTTOM : 8-11
	arc 8 9 (0.141421356237309504 0.141421356237309504 0.1)
	arc 9 10 (-0.141421356237309504 0.141421356237309504 0.1)
	arc 10 11 (-0.141421356237309504 -0.141421356237309504 0.1)
	arc 11 8 (0.141421356237309504 -0.141421356237309504 0.1)
	//Hole BOTTOM : 12-15
	arc 12 13 (0.353553390593273762 0.353553390593273762 0)
	arc 13 14 (-0.353553390593273762 0.353553390593273762 0)
	arc 14 15 (-0.353553390593273762 -0.353553390593273762 0)
	arc 15 12 (0.353553390593273762 -0.353553390593273762 0)
);

blocks
(

	//Hole
	hex (12 15 14 13 0 3 2 1) (30 30 30) simpleGrading (1 1 10) 
	//Implosion Cell
	hex (4 7 6 5 8 11 10 9) (30 30 30) simpleGrading (1 1 10)
	//Layer
	hex (16 19 18 17 20 23 22 21) (30 30 30) simpleGrading (1 1 10)
);

patches
(
	//Hole TOP / Hole AREA1 TOP : 0-3
	patch holetop
	(
		(0 3 2 1)
	)
	//Hole INNER BODY : 0-3 + 12-15
	patch holeinnerbody
	(
		(12 0 1 13)
		(13 1 2 14)
		(14 2 3 15)
		(15 3 0 12)
	)
	//Hole BOTTOM : 12-15
	patch holebottom
	(
		(12 15 14 13)
	)
	//ICell OUTER BODY
	patch icouterbody
	(
		(8 4 5 9)
		(9 5 6 10)
		(10 6 7 11)
		(11 7 4 8)
		(4 5 6 7)
		(8 9 10 11)
	)
);

mergePatchPairs
(
);

// ************************************************************************* //

