

/*--------------------------------*- C++ -*----------------------------------*\
| =========                 |                                                 |
| \      /  F ield         | OpenFOAM: The Open Source CFD Toolbox           |
|  \    /   O peration     | Version:  1.6.06                                 |
|   \  /    A nd           | Web:      www.OpenFOAM.com                      |
|    \/     M anipulation  |                                                 |
\*---------------------------------------------------------------------------*/
FoamFile
{
    version     2.0;
    format      ascii;
    class       dictionary;
    object      blockMeshDict;
}
// * * * * * * * * * * * * * * * * * * * * * * * * * * * * * * * * * * * * * //

//Main points list
vertices
(
	//Hole Outer Bottom 0-3
	( 0.5 0 0 )
	( 0 0.5 0 )
	( -0.5 0 0 )
	( 0 -0.5 0 )
	//Hole Outer Top 4-7
	( 0.5 0 10 )
	( 0 0.5 10 )
	( -0.5 0 10 )
	( 0 -0.5 10 )
	//Hole Inner Bottom 8-11
	( 0.45 0 0 )
	( 0 0.45 0 )
	( -0.45 0 0 )
	( 0 -0.45 0 )
	//Hole Inner Top 12-15
	( 0.45 0 10 )
	( 0 0.45 10 )
	( -0.45 0 10 )
	( 0 -0.45 10 )
);

//Arcs to full cirle
edges
(
	//Hole Outer Bottom 0-3
	arc 0 1 (0.353553390593273762 0.353553390593273762 0)
	arc 1 2 (-0.353553390593273762 0.353553390593273762 0)
	arc 2 3 (-0.353553390593273762 -0.353553390593273762 0)
	arc 3 0 (0.353553390593273762 -0.353553390593273762 0)
	//Hole Outer Top 4-7
	arc 4 5 (0.353553390593273762 0.353553390593273762 10)
	arc 5 6 (-0.353553390593273762 0.353553390593273762 10)
	arc 6 7 (-0.353553390593273762 -0.353553390593273762 10)
	arc 7 4 (0.353553390593273762 -0.353553390593273762 10)
	//Hole Inner Bottom 8-11
	arc 8 9 (0.318198051533946386 0.318198051533946386 0)
	arc 9 10 (-0.318198051533946386 0.318198051533946386 0)
	arc 10 11 (-0.318198051533946386 -0.318198051533946386 0)
	arc 11 8 (0.318198051533946386 -0.318198051533946386 0)
	//Hole Inner Top 12-15
	arc 12 13 (0.318198051533946386 0.318198051533946386 10)
	arc 13 14 (-0.318198051533946386 0.318198051533946386 10)
	arc 14 15 (-0.318198051533946386 -0.318198051533946386 10)
	arc 15 12 (0.318198051533946386 -0.318198051533946386 10)
);

blocks
(
	//Hole Outer 0-7
//	hex (0 1 2 3 4 5 6 7) (30 30 30) simpleGrading (1 1 10)
	//Hole Inner 8-15
//	hex (8 9 10 11 12 13 14 15) (30 30 30) simpleGrading (1 1 10)
	//Sectors
	hex (0 1 9 8 4 5 13 12) (30 30 30) simpleGrading (1 1 10)
	hex (1 2 10 9 5 6 14 13) (30 30 30) simpleGrading (1 1 10)
	hex (2 3 11 10 6 7 15 14) (30 30 30) simpleGrading (1 1 10)
	hex (3 0 8 11 7 4 12 15) (30 30 30) simpleGrading (1 1 10)
);

patches
(
/*
	//REPAIR HERE! Hole Outer 0-7 INner 8-15
	patch holeinnerborder
	(
		(8 12 13 9)
		(9 13 14 10)
		(10 14 15 11)
		(11 15 12 8)
	)
	patch holeoutertop
	(
		(4 7 6 5)
	)
	patch holeouterbottom
	(
		(0 3 2 1)
	)
	patch holeinnertop
	(
		(8 11 10 9)
	)
	patch holeinnerbottom
	(
		(12 15 14 13)
	)
*/
);

mergePatchPairs
(
//( holeouterborder holeinnerborder )
//( holeoutertop holeinnertop )
);

// ************************************************************************* //

